Circuit: * C:\Users\Bradley\Documents\GitHub\CougSat1-Hardware\CougSat1-RadioBoard\ElectricalDesign\LTSpice\ModulatorDriver.asc

Direct Newton iteration for .op point succeeded.

Date: Sat Nov 17 17:21:50 2018
Total elapsed time: 0.110 seconds.

tnom = 27
temp = 27
method = modified trap
totiter = 4982
traniter = 4956
tranpoints = 1671
accept = 1516
rejected = 155
matrix size = 66
fillins = 24
solver = Normal
Thread vector: 7.1/4.4[2] 2.3/1.8[2] 2.0/1.5[2] 0.3/0.9[1]  2592/500
Matrix Compiler1: 3.18 KB object code size  1.4/0.7/[0.4]
Matrix Compiler2: 5.19 KB object code size  0.7/0.9/[0.5]

