Circuit: * C:\Users\Bradley\Documents\GitHub\CougSat1-Hardware\CougSat1-RadioBoard\ElectricalDesign\LTSpice\PABiasControl\PABiasControl.asc

Instance "m:u2:6": Length shorter than recommended for a level 2 MOSFET.
Instance "m:u2:5": Length shorter than recommended for a level 2 MOSFET.
Instance "m:u2:4": Length shorter than recommended for a level 2 MOSFET.
Instance "m:u2:3": Length shorter than recommended for a level 2 MOSFET.
Instance "m:u2:2": Length shorter than recommended for a level 2 MOSFET.
Instance "m:u2:1": Length shorter than recommended for a level 2 MOSFET.
Instance "m:u1:6": Length shorter than recommended for a level 2 MOSFET.
Instance "m:u1:5": Length shorter than recommended for a level 2 MOSFET.
Instance "m:u1:4": Length shorter than recommended for a level 2 MOSFET.
Instance "m:u1:3": Length shorter than recommended for a level 2 MOSFET.
Instance "m:u1:2": Length shorter than recommended for a level 2 MOSFET.
Instance "m:u1:1": Length shorter than recommended for a level 2 MOSFET.
Direct Newton iteration failed to find .op point.  (Use ".option noopiter" to skip.)
Starting Gmin stepping
Gmin = 10
Gmin = 1.07374
Gmin = 0.115292
Gmin = 0.0123794
Gmin = 0.00132923
vernier = 0.5
vernier = 0.25
vernier = 0.125
vernier = 0.0625
Gmin = 0.00100083
vernier = 0.03125
vernier = 0.015625
vernier = 0.0078125
vernier = 0.00390625
vernier = 0.00195313
Gmin = 0.00100083
vernier = 0.000976563
vernier = 0.000488281
Gmin = 0
Gmin stepping failed

Starting source stepping with srcstepmethod=0
Source Step = 3.0303%
Source Step = 33.3333%
vernier = 0.25
Source Step = 30.3208%
Source Step = 30.3504%
Source Step = 30.38%
Source Step = 30.4096%
Source Step = 30.4392%
vernier = 0.00146484
Source Step = 30.4732%
Source Step = 30.5176%
Source Step = 30.562%
Source Step = 30.6064%
Source Step = 30.6507%
vernier = 0.00219727
Source Step = 30.6996%
Source Step = 30.7662%
Source Step = 30.8327%
Source Step = 30.8993%
Source Step = 30.9659%
vernier = 0.0032959
Source Step = 31.0358%
Source Step = 31.1357%
Source Step = 31.2356%
Source Step = 31.3354%
Source Step = 31.4353%
Source Step = 31.5352%
vernier = 0.00494385
Source Step = 31.685%
Source Step = 31.8348%
Source Step = 31.9846%
Source Step = 32.1345%
Source Step = 32.2843%
vernier = 0.00741577
Source Step = 32.5015%
Source Step = 32.7262%
Source Step = 32.9509%
Source Step = 33.1757%
Source Step = 33.4004%
vernier = 0.0111237
Source Step = 33.715%
Source Step = 34.0521%
Source Step = 34.3891%
Source Step = 34.7262%
Source Step = 35.0633%
vernier = 0.0166855
Source Step = 35.5184%
Source Step = 36.024%
Source Step = 36.5296%
Source Step = 37.0352%
Source Step = 37.5409%
vernier = 0.0250282
Source Step = 38.1982%
Source Step = 38.9566%
Source Step = 39.715%
Source Step = 40.4735%
Source Step = 41.2319%
vernier = 0.0375423
Source Step = 42.1799%
Source Step = 43.3176%
Source Step = 44.4552%
Source Step = 45.5929%
Source Step = 46.7305%
vernier = 0.0563135
Source Step = 48.0957%
Source Step = 49.8022%
Source Step = 51.5086%
Source Step = 53.2151%
Source Step = 54.9216%
vernier = 0.0844703
Source Step = 56.884%
Source Step = 59.4437%
Source Step = 62.0034%
Source Step = 64.5631%
Source Step = 67.1228%
vernier = 0.126705
Source Step = 69.9385%
Source Step = 73.7781%
Source Step = 77.6176%
Source Step = 81.4572%
Source Step = 85.2967%
vernier = 0.190058
Source Step = 89.3283%
Source Step = 95.0876%
Source Step = 100%
Source stepping succeeded in finding the operating point.

Heightened Def Con from 0.0134501 to 0.0134501
